gridcapa-swe-commons/src/test/resources/shift/TestCase_with_transformers_shift_es_fr_1000.xiidm
<?xml version="1.0" encoding="UTF-8"?>
<iidm:network xmlns:iidm="http://www.powsybl.org/schema/iidm/1_12" id="shift/TestCase_with_transformers" caseDate="2023-08-25T17:35:29.641+02:00" forecastDistance="0" sourceFormat="UCTE" minimumValidationLevel="STEADY_STATE_HYPOTHESIS">
    <iidm:substation id="ES_L1_" country="ES">
        <iidm:voltageLevel id="ES_L1_1" nominalV="380.0" topologyKind="BUS_BREAKER">
            <iidm:busBreakerTopology>
                <iidm:bus id="ES_L1_1 " v="380.0" angle="0.0">
                    <iidm:property name="geographicalName" value="ES_L1_1"/>
                </iidm:bus>
            </iidm:busBreakerTopology>
            <iidm:generator id="ES_L1_1 _generator" energySource="OTHER" minP="-9000.0" maxP="9000.0" voltageRegulatorOn="true" targetP="0.0" targetV="380.0" targetQ="0.0" bus="ES_L1_1 " connectableBus="ES_L1_1 " p="-0.0" q="-385.1555988854667">
                <iidm:minMaxReactiveLimits minQ="-9000.0" maxQ="9000.0"/>
            </iidm:generator>
            <iidm:load id="ES_L1_1 _load" loadType="UNDEFINED" p0="1967.0" q0="-53.5" bus="ES_L1_1 " connectableBus="ES_L1_1 " p="1967.0" q="-53.5"/>
        </iidm:voltageLevel>
    </iidm:substation>
    <iidm:substation id="ES_L2_" country="ES">
        <iidm:voltageLevel id="ES_L2_1" nominalV="380.0" topologyKind="BUS_BREAKER">
            <iidm:busBreakerTopology>
                <iidm:bus id="ES_L2_1 " v="380.0" angle="-0.5574039798204324">
                    <iidm:property name="geographicalName" value="ES_L2_1"/>
                </iidm:bus>
            </iidm:busBreakerTopology>
            <iidm:generator id="ES_L2_1 _generator" energySource="OTHER" minP="-9000.0" maxP="9000.0" voltageRegulatorOn="true" targetP="0.0" targetV="380.0" targetQ="0.0" bus="ES_L2_1 " connectableBus="ES_L2_1 " p="-0.0" q="-377.6954917713109">
                <iidm:minMaxReactiveLimits minQ="-9000.0" maxQ="9000.0"/>
            </iidm:generator>
            <iidm:load id="ES_L2_1 _load" loadType="UNDEFINED" p0="1967.0" q0="-53.5" bus="ES_L2_1 " connectableBus="ES_L2_1 " p="1967.0" q="-53.5"/>
        </iidm:voltageLevel>
    </iidm:substation>
    <iidm:substation id="ES_E1_" country="ES">
        <iidm:voltageLevel id="ES_E1_1" nominalV="380.0" topologyKind="BUS_BREAKER">
            <iidm:busBreakerTopology>
                <iidm:bus id="ES_E1_1 " v="380.0" angle="-2.3638287416320445">
                    <iidm:property name="geographicalName" value="ES_E1_1"/>
                </iidm:bus>
            </iidm:busBreakerTopology>
            <iidm:generator id="ES_E1_1 _generator" energySource="OTHER" minP="-9000.0" maxP="9000.0" voltageRegulatorOn="true" targetP="0.0" targetV="380.0" targetQ="0.0" bus="ES_E1_1 " connectableBus="ES_E1_1 " p="-0.0" q="-42.55070400998591">
                <iidm:minMaxReactiveLimits minQ="-9000.0" maxQ="9000.0"/>
            </iidm:generator>
        </iidm:voltageLevel>
    </iidm:substation>
    <iidm:substation id="ES_01_" country="ES">
        <iidm:voltageLevel id="ES_01_1" nominalV="380.0" topologyKind="BUS_BREAKER">
            <iidm:busBreakerTopology>
                <iidm:bus id="ES_01_1 " v="380.0" angle="2.5394325098734214">
                    <iidm:property name="geographicalName" value="ES_01_1"/>
                </iidm:bus>
            </iidm:busBreakerTopology>
            <iidm:generator id="ES_01_1 _generator" energySource="OTHER" minP="-9000.0" maxP="9000.0" voltageRegulatorOn="true" targetP="0.0" targetV="380.0" targetQ="0.0" bus="ES_01_1 " connectableBus="ES_01_1 " p="-0.0" q="-49.12449798050886">
                <iidm:minMaxReactiveLimits minQ="-9000.0" maxQ="9000.0"/>
            </iidm:generator>
        </iidm:voltageLevel>
    </iidm:substation>
    <iidm:substation id="ES_02_" country="ES">
        <iidm:voltageLevel id="ES_02_1" nominalV="380.0" topologyKind="BUS_BREAKER">
            <iidm:busBreakerTopology>
                <iidm:bus id="ES_02_1 " v="380.0" angle="2.9014039085183705">
                    <iidm:property name="geographicalName" value="ES_02_1"/>
                </iidm:bus>
            </iidm:busBreakerTopology>
            <iidm:generator id="ES_02_1 _generator" energySource="OTHER" minP="-9000.0" maxP="9000.0" voltageRegulatorOn="true" targetP="0.0" targetV="380.0" targetQ="0.0" bus="ES_02_1 " connectableBus="ES_02_1 " p="-0.0" q="-62.45689882031513">
                <iidm:minMaxReactiveLimits minQ="-9000.0" maxQ="9000.0"/>
            </iidm:generator>
        </iidm:voltageLevel>
    </iidm:substation>
    <iidm:substation id="ESCTGN" country="ES">
        <iidm:voltageLevel id="ESCTGN1" nominalV="380.0" topologyKind="BUS_BREAKER">
            <iidm:busBreakerTopology>
                <iidm:bus id="ESCTGN1 " v="380.0" angle="6.391976677002307">
                    <iidm:property name="geographicalName" value="ESCTGN1"/>
                </iidm:bus>
                <iidm:bus id="ES_03_1 " v="380.0" angle="2.421267080278099">
                    <iidm:property name="geographicalName" value="ES_03_1"/>
                </iidm:bus>
            </iidm:busBreakerTopology>
            <iidm:generator id="ESCTGN1 _generator" energySource="OTHER" minP="-9000.0" maxP="9000.0" voltageRegulatorOn="true" targetP="1000.0" targetV="380.0" targetQ="0.0" bus="ESCTGN1 " connectableBus="ESCTGN1 " p="-1000.1660058033237" q="-22.660399095969865">
                <iidm:minMaxReactiveLimits minQ="-9000.0" maxQ="9000.0"/>
            </iidm:generator>
            <iidm:generator id="ES_03_1 _generator" energySource="OTHER" minP="-9000.0" maxP="9000.0" voltageRegulatorOn="true" targetP="0.0" targetV="380.0" targetQ="0.0" bus="ES_03_1 " connectableBus="ES_03_1 " p="-0.0" q="140.37219005492716">
                <iidm:minMaxReactiveLimits minQ="-9000.0" maxQ="9000.0"/>
            </iidm:generator>
            <iidm:load id="ESCTGN1 _load" loadType="UNDEFINED" p0="0.0" q0="-2.0" bus="ESCTGN1 " connectableBus="ESCTGN1 " p="0.0" q="-2.0"/>
        </iidm:voltageLevel>
        <iidm:twoWindingsTransformer id="ES_03_1  ESCTGN1  1" r="0.1" x="10.0" g="0.0" b="0.0" ratedU1="400.0" ratedU2="400.0" voltageLevelId1="ESCTGN1" bus1="ESCTGN1 " connectableBus1="ESCTGN1 " voltageLevelId2="ESCTGN1" bus2="ES_03_1 " connectableBus2="ES_03_1 " p1="1000.1660057461004" q1="24.660399095969865" p2="-999.4728338802187" q2="44.65678749223514" selectedOperationalLimitsGroupId2="DEFAULT">
            <iidm:property name="nomimalPower" value="999.0"/>
            <iidm:operationalLimitsGroup2 id="DEFAULT">
                <iidm:currentLimits permanentLimit="999999.0"/>
            </iidm:operationalLimitsGroup2>
        </iidm:twoWindingsTransformer>
    </iidm:substation>
    <iidm:substation id="ESCTGU" country="ES">
        <iidm:voltageLevel id="ESCTGU1" nominalV="380.0" topologyKind="BUS_BREAKER">
            <iidm:busBreakerTopology>
                <iidm:bus id="ESCTGU1 " v="380.0" angle="7.840908445012776">
                    <iidm:property name="geographicalName" value="ESCTGU1"/>
                </iidm:bus>
                <iidm:bus id="ES_04_1 " v="380.0" angle="3.0747059042231006">
                    <iidm:property name="geographicalName" value="ES_04_1"/>
                </iidm:bus>
            </iidm:busBreakerTopology>
            <iidm:generator id="ESCTGU1 _generator" energySource="OTHER" minP="-9000.0" maxP="9000.0" voltageRegulatorOn="true" targetP="1200.0" targetV="380.0" targetQ="0.0" bus="ESCTGU1 " connectableBus="ESCTGU1 " p="-1200.1992069639887" q="-35.93087077063433">
                <iidm:minMaxReactiveLimits minQ="-9000.0" maxQ="9000.0"/>
            </iidm:generator>
            <iidm:generator id="ES_04_1 _generator" energySource="OTHER" minP="-9000.0" maxP="9000.0" voltageRegulatorOn="true" targetP="0.0" targetV="380.0" targetQ="0.0" bus="ES_04_1 " connectableBus="ES_04_1 " p="-0.0" q="163.49506438778008">
                <iidm:minMaxReactiveLimits minQ="-9000.0" maxQ="9000.0"/>
            </iidm:generator>
            <iidm:load id="ESCTGU1 _load" loadType="UNDEFINED" p0="0.0" q0="-2.0" bus="ESCTGU1 " connectableBus="ESCTGU1 " p="0.0" q="-2.0"/>
        </iidm:voltageLevel>
        <iidm:twoWindingsTransformer id="ES_04_1  ESCTGU1  1" r="0.1" x="10.0" g="0.0" b="0.0" ratedU1="400.0" ratedU2="400.0" voltageLevelId1="ESCTGU1" bus1="ESCTGU1 " connectableBus1="ESCTGU1 " voltageLevelId2="ESCTGU1" bus2="ES_04_1 " connectableBus2="ES_04_1 " p1="1200.1992068616923" q1="37.93087077063433" p2="-1199.2006494606476" q2="61.924869333856236" selectedOperationalLimitsGroupId2="DEFAULT">
            <iidm:property name="nomimalPower" value="999.0"/>
            <iidm:operationalLimitsGroup2 id="DEFAULT">
                <iidm:currentLimits permanentLimit="999999.0"/>
            </iidm:operationalLimitsGroup2>
        </iidm:twoWindingsTransformer>
    </iidm:substation>
    <iidm:substation id="ES_05_" country="ES">
        <iidm:voltageLevel id="ES_05_1" nominalV="380.0" topologyKind="BUS_BREAKER">
            <iidm:busBreakerTopology>
                <iidm:bus id="ES_05_1 " v="380.0" angle="1.4320235104084567">
                    <iidm:property name="geographicalName" value="ES_05_1"/>
                </iidm:bus>
            </iidm:busBreakerTopology>
            <iidm:generator id="ES_05_1 _generator" energySource="OTHER" minP="-9000.0" maxP="9000.0" voltageRegulatorOn="true" targetP="0.0" targetV="380.0" targetQ="0.0" bus="ES_05_1 " connectableBus="ES_05_1 " p="-0.0" q="10.790348673964445">
                <iidm:minMaxReactiveLimits minQ="-9000.0" maxQ="9000.0"/>
            </iidm:generator>
        </iidm:voltageLevel>
    </iidm:substation>
    <iidm:substation id="ES_06_" country="ES">
        <iidm:voltageLevel id="ES_06_1" nominalV="380.0" topologyKind="BUS_BREAKER">
            <iidm:busBreakerTopology>
                <iidm:bus id="ES_06_1 " v="380.0" angle="1.0518672495909929">
                    <iidm:property name="geographicalName" value="ES_06_1"/>
                </iidm:bus>
            </iidm:busBreakerTopology>
            <iidm:generator id="ES_06_1 _generator" energySource="OTHER" minP="-9000.0" maxP="9000.0" voltageRegulatorOn="true" targetP="0.0" targetV="380.0" targetQ="0.0" bus="ES_06_1 " connectableBus="ES_06_1 " p="-0.0" q="1.3299376160716747">
                <iidm:minMaxReactiveLimits minQ="-9000.0" maxQ="9000.0"/>
            </iidm:generator>
        </iidm:voltageLevel>
    </iidm:substation>
    <iidm:substation id="ESDTGN" country="ES">
        <iidm:voltageLevel id="ESDTGN1" nominalV="380.0" topologyKind="BUS_BREAKER">
            <iidm:busBreakerTopology>
                <iidm:bus id="ESDTGN1 ">
                    <iidm:property name="geographicalName" value="ESDTGN1"/>
                </iidm:bus>
                <iidm:bus id="ES_07_1 " v="380.0" angle="0.8142554785957343">
                    <iidm:property name="geographicalName" value="ES_07_1"/>
                </iidm:bus>
            </iidm:busBreakerTopology>
            <iidm:generator id="ESDTGN1 _generator" energySource="OTHER" minP="-9000.0" maxP="9000.0" voltageRegulatorOn="true" targetP="0.0" targetV="380.0" targetQ="0.0" connectableBus="ESDTGN1 ">
                <iidm:minMaxReactiveLimits minQ="-9000.0" maxQ="9000.0"/>
            </iidm:generator>
            <iidm:generator id="ES_07_1 _generator" energySource="OTHER" minP="-9000.0" maxP="9000.0" voltageRegulatorOn="true" targetP="0.0" targetV="380.0" targetQ="0.0" bus="ES_07_1 " connectableBus="ES_07_1 " p="-0.0" q="0.8991454874433202">
                <iidm:minMaxReactiveLimits minQ="-9000.0" maxQ="9000.0"/>
            </iidm:generator>
            <iidm:load id="ESDTGN1 _load" loadType="UNDEFINED" p0="0.0" q0="-2.0" bus="ESDTGN1 " connectableBus="ESDTGN1 "/>
        </iidm:voltageLevel>
        <iidm:twoWindingsTransformer id="ES_07_1  ESDTGN1  1" r="0.1" x="10.0" g="0.0" b="0.0" ratedU1="400.0" ratedU2="400.0" voltageLevelId1="ESDTGN1" connectableBus1="ESDTGN1 " voltageLevelId2="ESDTGN1" connectableBus2="ES_07_1 " selectedOperationalLimitsGroupId2="DEFAULT">
            <iidm:property name="nomimalPower" value="999.0"/>
            <iidm:operationalLimitsGroup2 id="DEFAULT">
                <iidm:currentLimits permanentLimit="999999.0"/>
            </iidm:operationalLimitsGroup2>
        </iidm:twoWindingsTransformer>
    </iidm:substation>
    <iidm:substation id="ESDTGU" country="ES">
        <iidm:voltageLevel id="ESDTGU1" nominalV="380.0" topologyKind="BUS_BREAKER">
            <iidm:busBreakerTopology>
                <iidm:bus id="ESDTGU1 " v="380.0" angle="2.298164189888258">
                    <iidm:property name="geographicalName" value="ESDTGU1"/>
                </iidm:bus>
                <iidm:bus id="ES_08_1 " v="380.0" angle="1.3720376421506775">
                    <iidm:property name="geographicalName" value="ES_08_1"/>
                </iidm:bus>
            </iidm:busBreakerTopology>
            <iidm:generator id="ESDTGU1 _generator" energySource="OTHER" minP="-9000.0" maxP="9000.0" voltageRegulatorOn="true" targetP="233.3541693602583" targetV="380.0" targetQ="0.0" bus="ESDTGU1 " connectableBus="ESDTGU1 " p="-233.39290750660194" q="2.44757530626498">
                <iidm:minMaxReactiveLimits minQ="-9000.0" maxQ="9000.0"/>
            </iidm:generator>
            <iidm:generator id="ES_08_1 _generator" energySource="OTHER" minP="-9000.0" maxP="9000.0" voltageRegulatorOn="true" targetP="0.0" targetV="380.0" targetQ="0.0" bus="ES_08_1 " connectableBus="ES_08_1 " p="-0.0" q="48.81734168479284">
                <iidm:minMaxReactiveLimits minQ="-9000.0" maxQ="9000.0"/>
            </iidm:generator>
            <iidm:load id="ESDTGU1 _load" loadType="UNDEFINED" p0="0.0" q0="-2.0" bus="ESDTGU1 " connectableBus="ESDTGU1 " p="0.0" q="-2.0"/>
        </iidm:voltageLevel>
        <iidm:twoWindingsTransformer id="ES_08_1  ESDTGU1  1" r="0.1" x="10.0" g="0.0" b="0.0" ratedU1="400.0" ratedU2="400.0" voltageLevelId1="ESDTGU1" bus1="ESDTGU1 " connectableBus1="ESDTGU1 " voltageLevelId2="ESDTGU1" bus2="ES_08_1 " connectableBus2="ES_08_1 " p1="233.39290750628157" q1="-0.4475753062649801" p2="-233.35518420323683" q2="4.219905610827368" selectedOperationalLimitsGroupId2="DEFAULT">
            <iidm:property name="nomimalPower" value="999.0"/>
            <iidm:operationalLimitsGroup2 id="DEFAULT">
                <iidm:currentLimits permanentLimit="999999.0"/>
            </iidm:operationalLimitsGroup2>
        </iidm:twoWindingsTransformer>
    </iidm:substation>
    <iidm:substation id="ESD2GN" country="ES">
        <iidm:voltageLevel id="ESD2GN1" nominalV="380.0" topologyKind="BUS_BREAKER">
            <iidm:busBreakerTopology>
                <iidm:bus id="ESD2GN1 ">
                    <iidm:property name="geographicalName" value="ESD2GN1"/>
                </iidm:bus>
                <iidm:bus id="ES_09_1 " v="380.0" angle="0.359651356058282">
                    <iidm:property name="geographicalName" value="ES_09_1"/>
                </iidm:bus>
            </iidm:busBreakerTopology>
            <iidm:generator id="ESD2GN1 _generator" energySource="OTHER" minP="-9000.0" maxP="9000.0" voltageRegulatorOn="true" targetP="0.0" targetV="380.0" targetQ="0.0" connectableBus="ESD2GN1 ">
                <iidm:minMaxReactiveLimits minQ="-9000.0" maxQ="9000.0"/>
            </iidm:generator>
            <iidm:generator id="ES_09_1 _generator" energySource="OTHER" minP="-9000.0" maxP="9000.0" voltageRegulatorOn="true" targetP="0.0" targetV="380.0" targetQ="0.0" bus="ES_09_1 " connectableBus="ES_09_1 " p="-0.0" q="7.81304802339946">
                <iidm:minMaxReactiveLimits minQ="-9000.0" maxQ="9000.0"/>
            </iidm:generator>
            <iidm:load id="ESD2GN1 _load" loadType="UNDEFINED" p0="0.0" q0="-2.0" bus="ESD2GN1 " connectableBus="ESD2GN1 "/>
        </iidm:voltageLevel>
        <iidm:twoWindingsTransformer id="ES_09_1  ESD2GN1  1" r="0.1" x="10.0" g="0.0" b="0.0" ratedU1="400.0" ratedU2="400.0" voltageLevelId1="ESD2GN1" connectableBus1="ESD2GN1 " voltageLevelId2="ESD2GN1" connectableBus2="ES_09_1 " selectedOperationalLimitsGroupId2="DEFAULT">
            <iidm:property name="nomimalPower" value="999.0"/>
            <iidm:operationalLimitsGroup2 id="DEFAULT">
                <iidm:currentLimits permanentLimit="999999.0"/>
            </iidm:operationalLimitsGroup2>
        </iidm:twoWindingsTransformer>
        <iidm:twoWindingsTransformer id="ES_09_1  ESD2GN1  2" r="0.1" x="10.0" g="0.0" b="0.0" ratedU1="400.0" ratedU2="400.0" voltageLevelId1="ESD2GN1" connectableBus1="ESD2GN1 " voltageLevelId2="ESD2GN1" connectableBus2="ES_09_1 " selectedOperationalLimitsGroupId2="DEFAULT">
            <iidm:property name="nomimalPower" value="999.0"/>
            <iidm:operationalLimitsGroup2 id="DEFAULT">
                <iidm:currentLimits permanentLimit="999999.0"/>
            </iidm:operationalLimitsGroup2>
        </iidm:twoWindingsTransformer>
    </iidm:substation>
    <iidm:substation id="ESD2GU" country="ES">
        <iidm:voltageLevel id="ESD2GU1" nominalV="380.0" topologyKind="BUS_BREAKER">
            <iidm:busBreakerTopology>
                <iidm:bus id="ESD2GU1 " v="380.0" angle="2.151422595051982">
                    <iidm:property name="geographicalName" value="ESD2GU1"/>
                </iidm:bus>
                <iidm:bus id="ES_10_1 " v="380.0" angle="1.7545424364367">
                    <iidm:property name="geographicalName" value="ES_10_1"/>
                </iidm:bus>
            </iidm:busBreakerTopology>
            <iidm:generator id="ESD2GU1 _generator" energySource="OTHER" minP="-9000.0" maxP="9000.0" voltageRegulatorOn="true" targetP="200.0" targetV="380.0" targetQ="0.0" bus="ESD2GU1 " connectableBus="ESD2GU1 " p="-200.0332011606648" q="3.307482417144002">
                <iidm:minMaxReactiveLimits minQ="-9000.0" maxQ="9000.0"/>
            </iidm:generator>
            <iidm:generator id="ES_10_1 _generator" energySource="OTHER" minP="-9000.0" maxP="9000.0" voltageRegulatorOn="true" targetP="0.0" targetV="380.0" targetQ="0.0" bus="ES_10_1 " connectableBus="ES_10_1 " p="-0.0" q="37.216182159164646">
                <iidm:minMaxReactiveLimits minQ="-9000.0" maxQ="9000.0"/>
            </iidm:generator>
            <iidm:load id="ESD2GU1 _load" loadType="UNDEFINED" p0="0.0" q0="-2.0" bus="ESD2GU1 " connectableBus="ESD2GU1 " p="0.0" q="-2.0"/>
        </iidm:voltageLevel>
        <iidm:twoWindingsTransformer id="ES_10_1  ESD2GU1  1" r="0.1" x="10.0" g="0.0" b="0.0" ratedU1="400.0" ratedU2="400.0" voltageLevelId1="ESD2GU1" bus1="ESD2GU1 " connectableBus1="ESD2GU1 " voltageLevelId2="ESD2GU1" bus2="ES_10_1 " connectableBus2="ES_10_1 " p1="100.01660058036175" q1="-0.6537412085720007" p2="-100.00967277719847" q2="1.346521525002231" selectedOperationalLimitsGroupId2="DEFAULT">
            <iidm:property name="nomimalPower" value="999.0"/>
            <iidm:operationalLimitsGroup2 id="DEFAULT">
                <iidm:currentLimits permanentLimit="999999.0"/>
            </iidm:operationalLimitsGroup2>
        </iidm:twoWindingsTransformer>
        <iidm:twoWindingsTransformer id="ES_10_1  ESD2GU1  2" r="0.1" x="10.0" g="0.0" b="0.0" ratedU1="400.0" ratedU2="400.0" voltageLevelId1="ESD2GU1" bus1="ESD2GU1 " connectableBus1="ESD2GU1 " voltageLevelId2="ESD2GU1" bus2="ES_10_1 " connectableBus2="ES_10_1 " p1="100.01660058036175" q1="-0.6537412085720007" p2="-100.00967277719847" q2="1.346521525002231" selectedOperationalLimitsGroupId2="DEFAULT">
            <iidm:property name="nomimalPower" value="999.0"/>
            <iidm:operationalLimitsGroup2 id="DEFAULT">
                <iidm:currentLimits permanentLimit="999999.0"/>
            </iidm:operationalLimitsGroup2>
        </iidm:twoWindingsTransformer>
    </iidm:substation>
    <iidm:substation id="ES_11_" country="ES">
        <iidm:voltageLevel id="ES_11_1" nominalV="380.0" topologyKind="BUS_BREAKER">
            <iidm:busBreakerTopology>
                <iidm:bus id="ES_11_1 " v="380.0" angle="1.4020290062277974">
                    <iidm:property name="geographicalName" value="ES_11_1"/>
                </iidm:bus>
            </iidm:busBreakerTopology>
            <iidm:generator id="ES_11_1 _generator" energySource="OTHER" minP="-9000.0" maxP="9000.0" voltageRegulatorOn="true" targetP="0.0" targetV="380.0" targetQ="0.0" bus="ES_11_1 " connectableBus="ES_11_1 " p="-0.0" q="7.216043057175625">
                <iidm:minMaxReactiveLimits minQ="-9000.0" maxQ="9000.0"/>
            </iidm:generator>
        </iidm:voltageLevel>
    </iidm:substation>
    <iidm:substation id="ESCDGN" country="ES">
        <iidm:voltageLevel id="ESCDGN1" nominalV="380.0" topologyKind="BUS_BREAKER">
            <iidm:busBreakerTopology>
                <iidm:bus id="ESCDGN1 ">
                    <iidm:property name="geographicalName" value="ESCDGN1"/>
                </iidm:bus>
                <iidm:bus id="ES_12_1 ">
                    <iidm:property name="geographicalName" value="ES_12_1"/>
                </iidm:bus>
            </iidm:busBreakerTopology>
            <iidm:generator id="ESCDGN1 _generator" energySource="OTHER" minP="-9000.0" maxP="9000.0" voltageRegulatorOn="true" targetP="0.0" targetV="380.0" targetQ="0.0" connectableBus="ESCDGN1 ">
                <iidm:minMaxReactiveLimits minQ="-9000.0" maxQ="9000.0"/>
            </iidm:generator>
            <iidm:generator id="ES_12_1 _generator" energySource="OTHER" minP="-9000.0" maxP="9000.0" voltageRegulatorOn="true" targetP="0.0" targetV="380.0" targetQ="0.0" bus="ES_12_1 " connectableBus="ES_12_1 ">
                <iidm:minMaxReactiveLimits minQ="-9000.0" maxQ="9000.0"/>
            </iidm:generator>
            <iidm:load id="ESCDGN1 _load" loadType="UNDEFINED" p0="0.0" q0="-2.0" bus="ESCDGN1 " connectableBus="ESCDGN1 "/>
        </iidm:voltageLevel>
        <iidm:twoWindingsTransformer id="ES_12_1  ESCDGN1  1" r="0.1" x="10.0" g="0.0" b="0.0" ratedU1="400.0" ratedU2="400.0" voltageLevelId1="ESCDGN1" connectableBus1="ESCDGN1 " voltageLevelId2="ESCDGN1" connectableBus2="ES_12_1 " selectedOperationalLimitsGroupId2="DEFAULT">
            <iidm:property name="nomimalPower" value="999.0"/>
            <iidm:operationalLimitsGroup2 id="DEFAULT">
                <iidm:currentLimits permanentLimit="999999.0"/>
            </iidm:operationalLimitsGroup2>
        </iidm:twoWindingsTransformer>
    </iidm:substation>
    <iidm:substation id="ES_13_" country="ES">
        <iidm:voltageLevel id="ES_13_1" nominalV="380.0" topologyKind="BUS_BREAKER">
            <iidm:busBreakerTopology>
                <iidm:bus id="ES_13_1 " v="380.0" angle="0.5868632421455819">
                    <iidm:property name="geographicalName" value="ES_13_1"/>
                </iidm:bus>
            </iidm:busBreakerTopology>
            <iidm:generator id="ES_13_1 _generator" energySource="OTHER" minP="-9000.0" maxP="9000.0" voltageRegulatorOn="true" targetP="0.0" targetV="380.0" targetQ="0.0" bus="ES_13_1 " connectableBus="ES_13_1 " p="-0.0" q="6.992737293154505">
                <iidm:minMaxReactiveLimits minQ="-9000.0" maxQ="9000.0"/>
            </iidm:generator>
        </iidm:voltageLevel>
    </iidm:substation>
    <iidm:substation id="ESCDGU" country="ES">
        <iidm:voltageLevel id="ESCDGU1" nominalV="380.0" topologyKind="BUS_BREAKER">
            <iidm:busBreakerTopology>
                <iidm:bus id="ESCDGU1 ">
                    <iidm:property name="geographicalName" value="ESCDGU1"/>
                </iidm:bus>
                <iidm:bus id="ES_14_1 ">
                    <iidm:property name="geographicalName" value="ES_14_1"/>
                </iidm:bus>
            </iidm:busBreakerTopology>
            <iidm:generator id="ESCDGU1 _generator" energySource="OTHER" minP="-9000.0" maxP="9000.0" voltageRegulatorOn="true" targetP="0.0" targetV="380.0" targetQ="0.0" bus="ESCDGU1 " connectableBus="ESCDGU1 ">
                <iidm:minMaxReactiveLimits minQ="-9000.0" maxQ="9000.0"/>
            </iidm:generator>
            <iidm:generator id="ES_14_1 _generator" energySource="OTHER" minP="-9000.0" maxP="9000.0" voltageRegulatorOn="true" targetP="0.0" targetV="380.0" targetQ="0.0" bus="ES_14_1 " connectableBus="ES_14_1 ">
                <iidm:minMaxReactiveLimits minQ="-9000.0" maxQ="9000.0"/>
            </iidm:generator>
            <iidm:load id="ESCDGU1 _load" loadType="UNDEFINED" p0="0.0" q0="-2.0" bus="ESCDGU1 " connectableBus="ESCDGU1 "/>
        </iidm:voltageLevel>
        <iidm:twoWindingsTransformer id="ES_14_1  ESCDGU1  1" r="0.1" x="10.0" g="0.0" b="0.0" ratedU1="400.0" ratedU2="400.0" voltageLevelId1="ESCDGU1" connectableBus1="ESCDGU1 " voltageLevelId2="ESCDGU1" connectableBus2="ES_14_1 " selectedOperationalLimitsGroupId2="DEFAULT">
            <iidm:property name="nomimalPower" value="999.0"/>
            <iidm:operationalLimitsGroup2 id="DEFAULT">
                <iidm:currentLimits permanentLimit="999999.0"/>
            </iidm:operationalLimitsGroup2>
        </iidm:twoWindingsTransformer>
    </iidm:substation>
    <iidm:substation id="ESDCGU" country="ES">
        <iidm:voltageLevel id="ESDCGU1" nominalV="380.0" topologyKind="BUS_BREAKER">
            <iidm:busBreakerTopology>
                <iidm:bus id="ESDCGU1 " v="380.0" angle="7.817973163480256">
                    <iidm:property name="geographicalName" value="ESDCGU1"/>
                </iidm:bus>
            </iidm:busBreakerTopology>
            <iidm:generator id="ESDCGU1 _generator" energySource="OTHER" minP="-9000.0" maxP="9000.0" voltageRegulatorOn="true" targetP="1200.0" targetV="380.0" targetQ="0.0" bus="ESDCGU1 " connectableBus="ESDCGU1 " p="-1200.1992069639887" q="192.51862638560522">
                <iidm:minMaxReactiveLimits minQ="-9000.0" maxQ="9000.0"/>
            </iidm:generator>
            <iidm:load id="ESDCGU1 _load" loadType="UNDEFINED" p0="0.0" q0="-2.0" bus="ESDCGU1 " connectableBus="ESDCGU1 " p="0.0" q="-2.0"/>
        </iidm:voltageLevel>
    </iidm:substation>
    <iidm:substation id="ESDCGN" country="ES">
        <iidm:voltageLevel id="ESDCGN1" nominalV="380.0" topologyKind="BUS_BREAKER">
            <iidm:busBreakerTopology>
                <iidm:bus id="ESDCGN1 " v="380.0" angle="6.640838598018602">
                    <iidm:property name="geographicalName" value="ESDCGN1"/>
                </iidm:bus>
            </iidm:busBreakerTopology>
            <iidm:generator id="ESDCGN1 _generator" energySource="OTHER" minP="-9000.0" maxP="9000.0" voltageRegulatorOn="true" targetP="1000.0" targetV="380.0" targetQ="0.0" bus="ESDCGN1 " connectableBus="ESDCGN1 " p="-1000.1660058033237" q="168.66276580922954">
                <iidm:minMaxReactiveLimits minQ="-9000.0" maxQ="9000.0"/>
            </iidm:generator>
            <iidm:load id="ESDCGN1 _load" loadType="UNDEFINED" p0="0.0" q0="-2.0" bus="ESDCGN1 " connectableBus="ESDCGN1 " p="0.0" q="-2.0"/>
        </iidm:voltageLevel>
    </iidm:substation>
    <iidm:substation id="ESDDGU" country="ES">
        <iidm:voltageLevel id="ESDDGU1" nominalV="380.0" topologyKind="BUS_BREAKER">
            <iidm:busBreakerTopology>
                <iidm:bus id="ESDDGU1 " v="380.0" angle="1.8761599998465734">
                    <iidm:property name="geographicalName" value="ESDDGU1"/>
                </iidm:bus>
            </iidm:busBreakerTopology>
            <iidm:generator id="ESDDGU1 _generator" energySource="OTHER" minP="-9000.0" maxP="9000.0" voltageRegulatorOn="true" targetP="200.0" targetV="380.0" targetQ="0.0" bus="ESDDGU1 " connectableBus="ESDDGU1 " p="-200.0332011606648" q="44.12230718128467">
                <iidm:minMaxReactiveLimits minQ="-9000.0" maxQ="9000.0"/>
            </iidm:generator>
            <iidm:load id="ESDDGU1 _load" loadType="UNDEFINED" p0="0.0" q0="-2.0" bus="ESDDGU1 " connectableBus="ESDDGU1 " p="0.0" q="-2.0"/>
        </iidm:voltageLevel>
    </iidm:substation>
    <iidm:substation id="ESDDGN" country="ES">
        <iidm:voltageLevel id="ESDDGN1" nominalV="380.0" topologyKind="BUS_BREAKER">
            <iidm:busBreakerTopology>
                <iidm:bus id="ESDDGN1 " v="380.1476469015495" angle="1.4275710840586315">
                    <iidm:property name="geographicalName" value="ESDDGN1"/>
                </iidm:bus>
            </iidm:busBreakerTopology>
            <iidm:generator id="ESDDGN1 _generator" energySource="OTHER" minP="-9000.0" maxP="9000.0" voltageRegulatorOn="true" targetP="0.0" targetV="380.0" targetQ="0.0" connectableBus="ESDDGN1 ">
                <iidm:minMaxReactiveLimits minQ="-9000.0" maxQ="9000.0"/>
            </iidm:generator>
            <iidm:load id="ESDDGN1 _load" loadType="UNDEFINED" p0="0.0" q0="-2.0" bus="ESDDGN1 " connectableBus="ESDDGN1 " p="0.0" q="-2.0"/>
        </iidm:voltageLevel>
    </iidm:substation>
    <iidm:substation id="FR_L1_" country="FR">
        <iidm:voltageLevel id="FR_L1_1" nominalV="380.0" topologyKind="BUS_BREAKER">
            <iidm:busBreakerTopology>
                <iidm:bus id="FR_L1_1 " v="380.0" angle="-8.537697921536795">
                    <iidm:property name="geographicalName" value="FR_L1_1"/>
                </iidm:bus>
            </iidm:busBreakerTopology>
            <iidm:generator id="FR_L1_1 _generator" energySource="OTHER" minP="-9000.0" maxP="9000.0" voltageRegulatorOn="true" targetP="-2.5394494643261666E-6" targetV="380.0" targetQ="0.0" bus="FR_L1_1 " connectableBus="FR_L1_1 " p="2.5394494643261666E-6" q="-347.8763750093318">
                <iidm:minMaxReactiveLimits minQ="-9000.0" maxQ="9000.0"/>
            </iidm:generator>
            <iidm:load id="FR_L1_1 _load" loadType="UNDEFINED" p0="1967.0" q0="-53.5" bus="FR_L1_1 " connectableBus="FR_L1_1 " p="1967.0" q="-53.5"/>
        </iidm:voltageLevel>
    </iidm:substation>
    <iidm:substation id="FR_L2_" country="FR">
        <iidm:voltageLevel id="FR_L2_1" nominalV="380.0" topologyKind="BUS_BREAKER">
            <iidm:busBreakerTopology>
                <iidm:bus id="FR_L2_1 " v="380.0" angle="-8.537755183977284">
                    <iidm:property name="geographicalName" value="FR_L2_1"/>
                </iidm:bus>
            </iidm:busBreakerTopology>
            <iidm:generator id="FR_L2_1 _generator" energySource="OTHER" minP="-9000.0" maxP="9000.0" voltageRegulatorOn="true" targetP="-2.5394494643261666E-6" targetV="380.0" targetQ="0.0" bus="FR_L2_1 " connectableBus="FR_L2_1 " p="2.5394494643261666E-6" q="-347.8807142927874">
                <iidm:minMaxReactiveLimits minQ="-9000.0" maxQ="9000.0"/>
            </iidm:generator>
            <iidm:load id="FR_L2_1 _load" loadType="UNDEFINED" p0="1967.0" q0="-53.5" bus="FR_L2_1 " connectableBus="FR_L2_1 " p="1967.0" q="-53.5"/>
        </iidm:voltageLevel>
    </iidm:substation>
    <iidm:substation id="FR_E1_" country="FR">
        <iidm:voltageLevel id="FR_E1_1" nominalV="380.0" topologyKind="BUS_BREAKER">
            <iidm:busBreakerTopology>
                <iidm:bus id="FR_E1_1 " v="380.0" angle="-6.495444901963294">
                    <iidm:property name="geographicalName" value="FR_E1_1"/>
                </iidm:bus>
            </iidm:busBreakerTopology>
            <iidm:generator id="FR_E1_1 _generator" energySource="OTHER" minP="-9000.0" maxP="9000.0" voltageRegulatorOn="true" targetP="-2.5394494643261666E-6" targetV="380.0" targetQ="0.0" bus="FR_E1_1 " connectableBus="FR_E1_1 " p="2.5394494643261666E-6" q="-45.04154121082422">
                <iidm:minMaxReactiveLimits minQ="-9000.0" maxQ="9000.0"/>
            </iidm:generator>
        </iidm:voltageLevel>
    </iidm:substation>
    <iidm:substation id="FR_01_" country="FR">
        <iidm:voltageLevel id="FR_01_1" nominalV="380.0" topologyKind="BUS_BREAKER">
            <iidm:busBreakerTopology>
                <iidm:bus id="FR_01_1 " v="380.0" angle="-6.610299045694931">
                    <iidm:property name="geographicalName" value="FR_01_1"/>
                </iidm:bus>
            </iidm:busBreakerTopology>
            <iidm:generator id="FR_01_1 _generator" energySource="OTHER" minP="-9000.0" maxP="9000.0" voltageRegulatorOn="true" targetP="-2.5394494643261666E-6" targetV="380.0" targetQ="0.0" bus="FR_01_1 " connectableBus="FR_01_1 " p="2.5394494643261666E-6" q="-17.131010248664325">
                <iidm:minMaxReactiveLimits minQ="-9000.0" maxQ="9000.0"/>
            </iidm:generator>
        </iidm:voltageLevel>
    </iidm:substation>
    <iidm:substation id="FR_02_" country="FR">
        <iidm:voltageLevel id="FR_02_1" nominalV="380.0" topologyKind="BUS_BREAKER">
            <iidm:busBreakerTopology>
                <iidm:bus id="FR_02_1 " v="380.0" angle="-6.571788248440399">
                    <iidm:property name="geographicalName" value="FR_02_1"/>
                </iidm:bus>
            </iidm:busBreakerTopology>
            <iidm:generator id="FR_02_1 _generator" energySource="OTHER" minP="-9000.0" maxP="9000.0" voltageRegulatorOn="true" targetP="-2.5394494643261666E-6" targetV="380.0" targetQ="0.0" bus="FR_02_1 " connectableBus="FR_02_1 " p="2.5394494643261666E-6" q="-17.273827930512198">
                <iidm:minMaxReactiveLimits minQ="-9000.0" maxQ="9000.0"/>
            </iidm:generator>
        </iidm:voltageLevel>
    </iidm:substation>
    <iidm:substation id="FRCTGN" country="FR">
        <iidm:voltageLevel id="FRCTGN1" nominalV="380.0" topologyKind="BUS_BREAKER">
            <iidm:busBreakerTopology>
                <iidm:bus id="FRCTGN1 " v="380.0" angle="-3.6016303727713184">
                    <iidm:property name="geographicalName" value="FRCTGN1"/>
                </iidm:bus>
                <iidm:bus id="FR_03_1 " v="380.0" angle="-6.563207090104872">
                    <iidm:property name="geographicalName" value="FR_03_1"/>
                </iidm:bus>
            </iidm:busBreakerTopology>
            <iidm:generator id="FRCTGN1 _generator" energySource="OTHER" minP="-9000.0" maxP="9000.0" voltageRegulatorOn="true" targetP="746.0550535673834" targetV="380.0" targetQ="0.0" bus="FRCTGN1 " connectableBus="FRCTGN1 " p="-746.1789030358747" q="-9.824168675684632">
                <iidm:minMaxReactiveLimits minQ="-9000.0" maxQ="9000.0"/>
            </iidm:generator>
            <iidm:generator id="FR_03_1 _generator" energySource="OTHER" minP="-9000.0" maxP="9000.0" voltageRegulatorOn="true" targetP="-2.5394494643261666E-6" targetV="380.0" targetQ="0.0" bus="FR_03_1 " connectableBus="FR_03_1 " p="2.5394494643261666E-6" q="122.07662453859882">
                <iidm:minMaxReactiveLimits minQ="-9000.0" maxQ="9000.0"/>
            </iidm:generator>
            <iidm:load id="FRCTGN1 _load" loadType="UNDEFINED" p0="0.0" q0="-2.0" bus="FRCTGN1 " connectableBus="FRCTGN1 " p="0.0" q="-2.0"/>
        </iidm:voltageLevel>
        <iidm:twoWindingsTransformer id="FR_03_1  FRCTGN1  1" r="0.1" x="10.0" g="0.0" b="0.0" ratedU1="400.0" ratedU2="400.0" voltageLevelId1="FRCTGN1" bus1="FRCTGN1 " connectableBus1="FRCTGN1 " voltageLevelId2="FRCTGN1" bus2="FR_03_1 " connectableBus2="FR_03_1 " p1="746.1789030136082" q1="11.824168675684632" p2="-745.7932224275501" q2="26.743889930096998" selectedOperationalLimitsGroupId2="DEFAULT">
            <iidm:property name="nomimalPower" value="999.0"/>
            <iidm:operationalLimitsGroup2 id="DEFAULT">
                <iidm:currentLimits permanentLimit="999999.0"/>
            </iidm:operationalLimitsGroup2>
        </iidm:twoWindingsTransformer>
    </iidm:substation>
    <iidm:substation id="FRCTGU" country="FR">
        <iidm:voltageLevel id="FRCTGU1" nominalV="380.0" topologyKind="BUS_BREAKER">
            <iidm:busBreakerTopology>
                <iidm:bus id="FRCTGU1 " v="380.0" angle="-3.640168078309102">
                    <iidm:property name="geographicalName" value="FRCTGU1"/>
                </iidm:bus>
                <iidm:bus id="FR_04_1 " v="380.0" angle="-6.601744795642656">
                    <iidm:property name="geographicalName" value="FR_04_1"/>
                </iidm:bus>
            </iidm:busBreakerTopology>
            <iidm:generator id="FRCTGU1 _generator" energySource="OTHER" minP="-9000.0" maxP="9000.0" voltageRegulatorOn="true" targetP="746.0550535673834" targetV="380.0" targetQ="0.0" bus="FRCTGU1 " connectableBus="FRCTGU1 " p="-746.1789030358747" q="-9.824168675684632">
                <iidm:minMaxReactiveLimits minQ="-9000.0" maxQ="9000.0"/>
            </iidm:generator>
            <iidm:generator id="FR_04_1 _generator" energySource="OTHER" minP="-9000.0" maxP="9000.0" voltageRegulatorOn="true" targetP="-2.5394494643261666E-6" targetV="380.0" targetQ="0.0" bus="FR_04_1 " connectableBus="FR_04_1 " p="2.5394494643261666E-6" q="122.22024028019973">
                <iidm:minMaxReactiveLimits minQ="-9000.0" maxQ="9000.0"/>
            </iidm:generator>
            <iidm:load id="FRCTGU1 _load" loadType="UNDEFINED" p0="0.0" q0="-2.0" bus="FRCTGU1 " connectableBus="FRCTGU1 " p="0.0" q="-2.0"/>
        </iidm:voltageLevel>
        <iidm:twoWindingsTransformer id="FR_04_1  FRCTGU1  1" r="0.1" x="10.0" g="0.0" b="0.0" ratedU1="400.0" ratedU2="400.0" voltageLevelId1="FRCTGU1" bus1="FRCTGU1 " connectableBus1="FRCTGU1 " voltageLevelId2="FRCTGU1" bus2="FR_04_1 " connectableBus2="FR_04_1 " p1="746.1789030136082" q1="11.824168675684632" p2="-745.7932224275501" q2="26.743889930096998" selectedOperationalLimitsGroupId2="DEFAULT">
            <iidm:property name="nomimalPower" value="999.0"/>
            <iidm:operationalLimitsGroup2 id="DEFAULT">
                <iidm:currentLimits permanentLimit="999999.0"/>
            </iidm:operationalLimitsGroup2>
        </iidm:twoWindingsTransformer>
    </iidm:substation>
    <iidm:substation id="FR_05_" country="FR">
        <iidm:voltageLevel id="FR_05_1" nominalV="380.0" topologyKind="BUS_BREAKER">
            <iidm:busBreakerTopology>
                <iidm:bus id="FR_05_1 " v="380.0" angle="-7.6525148358548">
                    <iidm:property name="geographicalName" value="FR_05_1"/>
                </iidm:bus>
            </iidm:busBreakerTopology>
            <iidm:generator id="FR_05_1 _generator" energySource="OTHER" minP="-9000.0" maxP="9000.0" voltageRegulatorOn="true" targetP="-2.5394494643261666E-6" targetV="380.0" targetQ="0.0" bus="FR_05_1 " connectableBus="FR_05_1 " p="2.5394494643261666E-6" q="15.677486501303406">
                <iidm:minMaxReactiveLimits minQ="-9000.0" maxQ="9000.0"/>
            </iidm:generator>
        </iidm:voltageLevel>
    </iidm:substation>
    <iidm:substation id="FR_06_" country="FR">
        <iidm:voltageLevel id="FR_06_1" nominalV="380.0" topologyKind="BUS_BREAKER">
            <iidm:busBreakerTopology>
                <iidm:bus id="FR_06_1 " v="380.0" angle="-7.729550502371283">
                    <iidm:property name="geographicalName" value="FR_06_1"/>
                </iidm:bus>
            </iidm:busBreakerTopology>
            <iidm:generator id="FR_06_1 _generator" energySource="OTHER" minP="-9000.0" maxP="9000.0" voltageRegulatorOn="true" targetP="-2.5394494643261666E-6" targetV="380.0" targetQ="0.0" bus="FR_06_1 " connectableBus="FR_06_1 " p="2.5394494643261666E-6" q="15.65091570004995">
                <iidm:minMaxReactiveLimits minQ="-9000.0" maxQ="9000.0"/>
            </iidm:generator>
        </iidm:voltageLevel>
    </iidm:substation>
    <iidm:substation id="FRDTGN" country="FR">
        <iidm:voltageLevel id="FRDTGN1" nominalV="380.0" topologyKind="BUS_BREAKER">
            <iidm:busBreakerTopology>
                <iidm:bus id="FRDTGN1 ">
                    <iidm:property name="geographicalName" value="FRDTGN1"/>
                </iidm:bus>
                <iidm:bus id="FR_07_1 " v="380.0" angle="-7.649235819314847">
                    <iidm:property name="geographicalName" value="FR_07_1"/>
                </iidm:bus>
            </iidm:busBreakerTopology>
            <iidm:generator id="FRDTGN1 _generator" energySource="OTHER" minP="-9000.0" maxP="9000.0" voltageRegulatorOn="true" targetP="0.0" targetV="380.0" targetQ="0.0" connectableBus="FRDTGN1 ">
                <iidm:minMaxReactiveLimits minQ="-9000.0" maxQ="9000.0"/>
            </iidm:generator>
            <iidm:generator id="FR_07_1 _generator" energySource="OTHER" minP="-9000.0" maxP="9000.0" voltageRegulatorOn="true" targetP="-2.5394494643261666E-6" targetV="380.0" targetQ="0.0" bus="FR_07_1 " connectableBus="FR_07_1 " p="2.5394494643261666E-6" q="6.417025019081279">
                <iidm:minMaxReactiveLimits minQ="-9000.0" maxQ="9000.0"/>
            </iidm:generator>
            <iidm:load id="FRDTGN1 _load" loadType="UNDEFINED" p0="0.0" q0="-2.0" bus="FRDTGN1 " connectableBus="FRDTGN1 "/>
        </iidm:voltageLevel>
        <iidm:twoWindingsTransformer id="FR_07_1  FRDTGN1  1" r="0.1" x="10.0" g="0.0" b="0.0" ratedU1="400.0" ratedU2="400.0" voltageLevelId1="FRDTGN1" connectableBus1="FRDTGN1 " voltageLevelId2="FRDTGN1" connectableBus2="FR_07_1 " selectedOperationalLimitsGroupId2="DEFAULT">
            <iidm:property name="nomimalPower" value="999.0"/>
            <iidm:operationalLimitsGroup2 id="DEFAULT">
                <iidm:currentLimits permanentLimit="999999.0"/>
            </iidm:operationalLimitsGroup2>
        </iidm:twoWindingsTransformer>
    </iidm:substation>
    <iidm:substation id="FRDTGU" country="FR">
        <iidm:voltageLevel id="FRDTGU1" nominalV="380.0" topologyKind="BUS_BREAKER">
            <iidm:busBreakerTopology>
                <iidm:bus id="FRDTGU1 ">
                    <iidm:property name="geographicalName" value="FRDTGU1"/>
                </iidm:bus>
                <iidm:bus id="FR_08_1 " v="380.0" angle="-8.036471888089762">
                    <iidm:property name="geographicalName" value="FR_08_1"/>
                </iidm:bus>
            </iidm:busBreakerTopology>
            <iidm:generator id="FRDTGU1 _generator" energySource="OTHER" minP="-9000.0" maxP="9000.0" voltageRegulatorOn="true" targetP="0.0" targetV="380.0" targetQ="0.0" connectableBus="FRDTGU1 ">
                <iidm:minMaxReactiveLimits minQ="-9000.0" maxQ="9000.0"/>
            </iidm:generator>
            <iidm:generator id="FR_08_1 _generator" energySource="OTHER" minP="-9000.0" maxP="9000.0" voltageRegulatorOn="true" targetP="-2.5394494643261666E-6" targetV="380.0" targetQ="0.0" bus="FR_08_1 " connectableBus="FR_08_1 " p="2.5394494643261666E-6" q="9.985139394001408">
                <iidm:minMaxReactiveLimits minQ="-9000.0" maxQ="9000.0"/>
            </iidm:generator>
            <iidm:load id="FRDTGU1 _load" loadType="UNDEFINED" p0="0.0" q0="-2.0" bus="FRDTGU1 " connectableBus="FRDTGU1 "/>
        </iidm:voltageLevel>
        <iidm:twoWindingsTransformer id="FR_08_1  FRDTGU1  1" r="0.1" x="10.0" g="0.0" b="0.0" ratedU1="400.0" ratedU2="400.0" voltageLevelId1="FRDTGU1" connectableBus1="FRDTGU1 " voltageLevelId2="FRDTGU1" connectableBus2="FR_08_1 " selectedOperationalLimitsGroupId2="DEFAULT">
            <iidm:property name="nomimalPower" value="999.0"/>
            <iidm:operationalLimitsGroup2 id="DEFAULT">
                <iidm:currentLimits permanentLimit="999999.0"/>
            </iidm:operationalLimitsGroup2>
        </iidm:twoWindingsTransformer>
    </iidm:substation>
    <iidm:substation id="FRD2GN" country="FR">
        <iidm:voltageLevel id="FRD2GN1" nominalV="380.0" topologyKind="BUS_BREAKER">
            <iidm:busBreakerTopology>
                <iidm:bus id="FRD2GN1 ">
                    <iidm:property name="geographicalName" value="FRD2GN1"/>
                </iidm:bus>
                <iidm:bus id="FR_09_1 " v="380.0" angle="-8.037061152692749">
                    <iidm:property name="geographicalName" value="FR_09_1"/>
                </iidm:bus>
            </iidm:busBreakerTopology>
            <iidm:generator id="FRD2GN1 _generator" energySource="OTHER" minP="-9000.0" maxP="9000.0" voltageRegulatorOn="true" targetP="0.0" targetV="380.0" targetQ="0.0" connectableBus="FRD2GN1 ">
                <iidm:minMaxReactiveLimits minQ="-9000.0" maxQ="9000.0"/>
            </iidm:generator>
            <iidm:generator id="FR_09_1 _generator" energySource="OTHER" minP="-9000.0" maxP="9000.0" voltageRegulatorOn="true" targetP="-2.5394494643261666E-6" targetV="380.0" targetQ="0.0" bus="FR_09_1 " connectableBus="FR_09_1 " p="2.5394494643261666E-6" q="9.988022335804203">
                <iidm:minMaxReactiveLimits minQ="-9000.0" maxQ="9000.0"/>
            </iidm:generator>
            <iidm:load id="FRD2GN1 _load" loadType="UNDEFINED" p0="0.0" q0="-2.0" bus="FRD2GN1 " connectableBus="FRD2GN1 "/>
        </iidm:voltageLevel>
        <iidm:twoWindingsTransformer id="FR_09_1  FRD2GN1  1" r="0.1" x="10.0" g="0.0" b="0.0" ratedU1="400.0" ratedU2="400.0" voltageLevelId1="FRD2GN1" connectableBus1="FRD2GN1 " voltageLevelId2="FRD2GN1" connectableBus2="FR_09_1 " selectedOperationalLimitsGroupId2="DEFAULT">
            <iidm:property name="nomimalPower" value="999.0"/>
            <iidm:operationalLimitsGroup2 id="DEFAULT">
                <iidm:currentLimits permanentLimit="999999.0"/>
            </iidm:operationalLimitsGroup2>
        </iidm:twoWindingsTransformer>
        <iidm:twoWindingsTransformer id="FR_09_1  FRD2GN1  2" r="0.1" x="10.0" g="0.0" b="0.0" ratedU1="400.0" ratedU2="400.0" voltageLevelId1="FRD2GN1" connectableBus1="FRD2GN1 " voltageLevelId2="FRD2GN1" connectableBus2="FR_09_1 " selectedOperationalLimitsGroupId2="DEFAULT">
            <iidm:property name="nomimalPower" value="999.0"/>
            <iidm:operationalLimitsGroup2 id="DEFAULT">
                <iidm:currentLimits permanentLimit="999999.0"/>
            </iidm:operationalLimitsGroup2>
        </iidm:twoWindingsTransformer>
    </iidm:substation>
    <iidm:substation id="FRD2GU" country="FR">
        <iidm:voltageLevel id="FRD2GU1" nominalV="380.0" topologyKind="BUS_BREAKER">
            <iidm:busBreakerTopology>
                <iidm:bus id="FRD2GU1 ">
                    <iidm:property name="geographicalName" value="FRD2GU1"/>
                </iidm:bus>
                <iidm:bus id="FR_10_1 " v="380.0" angle="-7.72649410535558">
                    <iidm:property name="geographicalName" value="FR_10_1"/>
                </iidm:bus>
            </iidm:busBreakerTopology>
            <iidm:generator id="FRD2GU1 _generator" energySource="OTHER" minP="-9000.0" maxP="9000.0" voltageRegulatorOn="true" targetP="0.0" targetV="380.0" targetQ="0.0" connectableBus="FRD2GU1 ">
                <iidm:minMaxReactiveLimits minQ="-9000.0" maxQ="9000.0"/>
            </iidm:generator>
            <iidm:generator id="FR_10_1 _generator" energySource="OTHER" minP="-9000.0" maxP="9000.0" voltageRegulatorOn="true" targetP="-2.5394494643261666E-6" targetV="380.0" targetQ="0.0" bus="FR_10_1 " connectableBus="FR_10_1 " p="2.5394494643261666E-6" q="6.389213200276345">
                <iidm:minMaxReactiveLimits minQ="-9000.0" maxQ="9000.0"/>
            </iidm:generator>
            <iidm:load id="FRD2GU1 _load" loadType="UNDEFINED" p0="0.0" q0="-2.0" bus="FRD2GU1 " connectableBus="FRD2GU1 "/>
        </iidm:voltageLevel>
        <iidm:twoWindingsTransformer id="FR_10_1  FRD2GU1  1" r="0.1" x="10.0" g="0.0" b="0.0" ratedU1="400.0" ratedU2="400.0" voltageLevelId1="FRD2GU1" connectableBus1="FRD2GU1 " voltageLevelId2="FRD2GU1" connectableBus2="FR_10_1 " selectedOperationalLimitsGroupId2="DEFAULT">
            <iidm:property name="nomimalPower" value="999.0"/>
            <iidm:operationalLimitsGroup2 id="DEFAULT">
                <iidm:currentLimits permanentLimit="999999.0"/>
            </iidm:operationalLimitsGroup2>
        </iidm:twoWindingsTransformer>
        <iidm:twoWindingsTransformer id="FR_10_1  FRD2GU1  2" r="0.1" x="10.0" g="0.0" b="0.0" ratedU1="400.0" ratedU2="400.0" voltageLevelId1="FRD2GU1" connectableBus1="FRD2GU1 " voltageLevelId2="FRD2GU1" connectableBus2="FR_10_1 " selectedOperationalLimitsGroupId2="DEFAULT">
            <iidm:property name="nomimalPower" value="999.0"/>
            <iidm:operationalLimitsGroup2 id="DEFAULT">
                <iidm:currentLimits permanentLimit="999999.0"/>
            </iidm:operationalLimitsGroup2>
        </iidm:twoWindingsTransformer>
    </iidm:substation>
    <iidm:substation id="FR_11_" country="FR">
        <iidm:voltageLevel id="FR_11_1" nominalV="380.0" topologyKind="BUS_BREAKER">
            <iidm:busBreakerTopology>
                <iidm:bus id="FR_11_1 " v="380.0" angle="-7.8445576929454335">
                    <iidm:property name="geographicalName" value="FR_11_1"/>
                </iidm:bus>
            </iidm:busBreakerTopology>
            <iidm:generator id="FR_11_1 _generator" energySource="OTHER" minP="-9000.0" maxP="9000.0" voltageRegulatorOn="true" targetP="-2.5394494643261666E-6" targetV="380.0" targetQ="0.0" bus="FR_11_1 " connectableBus="FR_11_1 " p="2.5394494643261666E-6" q="7.0578831198304215">
                <iidm:minMaxReactiveLimits minQ="-9000.0" maxQ="9000.0"/>
            </iidm:generator>
        </iidm:voltageLevel>
    </iidm:substation>
    <iidm:substation id="FRCDGN" country="FR">
        <iidm:voltageLevel id="FRCDGN1" nominalV="380.0" topologyKind="BUS_BREAKER">
            <iidm:busBreakerTopology>
                <iidm:bus id="FRCDGN1 ">
                    <iidm:property name="geographicalName" value="FRCDGN1"/>
                </iidm:bus>
                <iidm:bus id="FR_12_1 ">
                    <iidm:property name="geographicalName" value="FR_12_1"/>
                </iidm:bus>
            </iidm:busBreakerTopology>
            <iidm:generator id="FRCDGN1 _generator" energySource="OTHER" minP="-9000.0" maxP="9000.0" voltageRegulatorOn="true" targetP="0.0" targetV="380.0" targetQ="0.0" connectableBus="FRCDGN1 ">
                <iidm:minMaxReactiveLimits minQ="-9000.0" maxQ="9000.0"/>
            </iidm:generator>
            <iidm:generator id="FR_12_1 _generator" energySource="OTHER" minP="-9000.0" maxP="9000.0" voltageRegulatorOn="true" targetP="0.0" targetV="380.0" targetQ="0.0" bus="FR_12_1 " connectableBus="FR_12_1 ">
                <iidm:minMaxReactiveLimits minQ="-9000.0" maxQ="9000.0"/>
            </iidm:generator>
            <iidm:load id="FRCDGN1 _load" loadType="UNDEFINED" p0="0.0" q0="-2.0" bus="FRCDGN1 " connectableBus="FRCDGN1 "/>
        </iidm:voltageLevel>
        <iidm:twoWindingsTransformer id="FR_12_1  FRCDGN1  1" r="0.1" x="10.0" g="0.0" b="0.0" ratedU1="400.0" ratedU2="400.0" voltageLevelId1="FRCDGN1" connectableBus1="FRCDGN1 " voltageLevelId2="FRCDGN1" connectableBus2="FR_12_1 " selectedOperationalLimitsGroupId2="DEFAULT">
            <iidm:property name="nomimalPower" value="999.0"/>
            <iidm:operationalLimitsGroup2 id="DEFAULT">
                <iidm:currentLimits permanentLimit="999999.0"/>
            </iidm:operationalLimitsGroup2>
        </iidm:twoWindingsTransformer>
    </iidm:substation>
    <iidm:substation id="FR_13_" country="FR">
        <iidm:voltageLevel id="FR_13_1" nominalV="380.0" topologyKind="BUS_BREAKER">
            <iidm:busBreakerTopology>
                <iidm:bus id="FR_13_1 " v="380.0" angle="-7.843214119646595">
                    <iidm:property name="geographicalName" value="FR_13_1"/>
                </iidm:bus>
            </iidm:busBreakerTopology>
            <iidm:generator id="FR_13_1 _generator" energySource="OTHER" minP="-9000.0" maxP="9000.0" voltageRegulatorOn="true" targetP="-2.5394494643261666E-6" targetV="380.0" targetQ="0.0" bus="FR_13_1 " connectableBus="FR_13_1 " p="2.5394494643261666E-6" q="7.0546000955033605">
                <iidm:minMaxReactiveLimits minQ="-9000.0" maxQ="9000.0"/>
            </iidm:generator>
        </iidm:voltageLevel>
    </iidm:substation>
    <iidm:substation id="FRCDGU" country="FR">
        <iidm:voltageLevel id="FRCDGU1" nominalV="380.0" topologyKind="BUS_BREAKER">
            <iidm:busBreakerTopology>
                <iidm:bus id="FRCDGU1 ">
                    <iidm:property name="geographicalName" value="FRCDGU1"/>
                </iidm:bus>
                <iidm:bus id="FR_14_1 ">
                    <iidm:property name="geographicalName" value="FR_14_1"/>
                </iidm:bus>
            </iidm:busBreakerTopology>
            <iidm:generator id="FRCDGU1 _generator" energySource="OTHER" minP="-9000.0" maxP="9000.0" voltageRegulatorOn="true" targetP="0.0" targetV="380.0" targetQ="0.0" connectableBus="FRCDGU1 ">
                <iidm:minMaxReactiveLimits minQ="-9000.0" maxQ="9000.0"/>
            </iidm:generator>
            <iidm:generator id="FR_14_1 _generator" energySource="OTHER" minP="-9000.0" maxP="9000.0" voltageRegulatorOn="true" targetP="0.0" targetV="380.0" targetQ="0.0" bus="FR_14_1 " connectableBus="FR_14_1 ">
                <iidm:minMaxReactiveLimits minQ="-9000.0" maxQ="9000.0"/>
            </iidm:generator>
            <iidm:load id="FRCDGU1 _load" loadType="UNDEFINED" p0="0.0" q0="-2.0" bus="FRCDGU1 " connectableBus="FRCDGU1 "/>
        </iidm:voltageLevel>
        <iidm:twoWindingsTransformer id="FR_14_1  FRCDGU1  1" r="0.1" x="10.0" g="0.0" b="0.0" ratedU1="400.0" ratedU2="400.0" voltageLevelId1="FRCDGU1" connectableBus1="FRCDGU1 " voltageLevelId2="FRCDGU1" connectableBus2="FR_14_1 " selectedOperationalLimitsGroupId2="DEFAULT">
            <iidm:property name="nomimalPower" value="999.0"/>
            <iidm:operationalLimitsGroup2 id="DEFAULT">
                <iidm:currentLimits permanentLimit="999999.0"/>
            </iidm:operationalLimitsGroup2>
        </iidm:twoWindingsTransformer>
    </iidm:substation>
    <iidm:substation id="FRDCGU" country="FR">
        <iidm:voltageLevel id="FRDCGU1" nominalV="380.0" topologyKind="BUS_BREAKER">
            <iidm:busBreakerTopology>
                <iidm:bus id="FRDCGU1 " v="380.0" angle="-3.5075552656754083">
                    <iidm:property name="geographicalName" value="FRDCGU1"/>
                </iidm:bus>
            </iidm:busBreakerTopology>
            <iidm:generator id="FRDCGU1 _generator" energySource="OTHER" minP="-9000.0" maxP="9000.0" voltageRegulatorOn="true" targetP="746.0550535673834" targetV="380.0" targetQ="0.0" bus="FRDCGU1 " connectableBus="FRDCGU1 " p="-746.1789030358747" q="134.19996799230387">
                <iidm:minMaxReactiveLimits minQ="-9000.0" maxQ="9000.0"/>
            </iidm:generator>
            <iidm:load id="FRDCGU1 _load" loadType="UNDEFINED" p0="0.0" q0="-2.0" bus="FRDCGU1 " connectableBus="FRDCGU1 " p="0.0" q="-2.0"/>
        </iidm:voltageLevel>
    </iidm:substation>
    <iidm:substation id="FRDCGN" country="FR">
        <iidm:voltageLevel id="FRDCGN1" nominalV="380.0" topologyKind="BUS_BREAKER">
            <iidm:busBreakerTopology>
                <iidm:bus id="FRDCGN1 " v="380.0" angle="-3.5460660629299414">
                    <iidm:property name="geographicalName" value="FRDCGN1"/>
                </iidm:bus>
            </iidm:busBreakerTopology>
            <iidm:generator id="FRDCGN1 _generator" energySource="OTHER" minP="-9000.0" maxP="9000.0" voltageRegulatorOn="true" targetP="746.0550535673834" targetV="380.0" targetQ="0.0" bus="FRDCGN1 " connectableBus="FRDCGN1 " p="-746.1789030358747" q="134.19996799230387">
                <iidm:minMaxReactiveLimits minQ="-9000.0" maxQ="9000.0"/>
            </iidm:generator>
            <iidm:load id="FRDCGN1 _load" loadType="UNDEFINED" p0="0.0" q0="-2.0" bus="FRDCGN1 " connectableBus="FRDCGN1 " p="0.0" q="-2.0"/>
        </iidm:voltageLevel>
    </iidm:substation>
    <iidm:substation id="FRDDGU" country="FR">
        <iidm:voltageLevel id="FRDDGU1" nominalV="380.0" topologyKind="BUS_BREAKER">
            <iidm:busBreakerTopology>
                <iidm:bus id="FRDDGU1 " v="380.1476469015495" angle="-7.734002928721108">
                    <iidm:property name="geographicalName" value="FRDDGU1"/>
                </iidm:bus>
            </iidm:busBreakerTopology>
            <iidm:generator id="FRDDGU1 _generator" energySource="OTHER" minP="-9000.0" maxP="9000.0" voltageRegulatorOn="true" targetP="0.0" targetV="380.0" targetQ="0.0" connectableBus="FRDDGU1 ">
                <iidm:minMaxReactiveLimits minQ="-9000.0" maxQ="9000.0"/>
            </iidm:generator>
            <iidm:load id="FRDDGU1 _load" loadType="UNDEFINED" p0="0.0" q0="-2.0" bus="FRDDGU1 " connectableBus="FRDDGU1 " p="0.0" q="-2.0"/>
        </iidm:voltageLevel>
    </iidm:substation>
    <iidm:substation id="FRDDGN" country="FR">
        <iidm:voltageLevel id="FRDDGN1" nominalV="380.0" topologyKind="BUS_BREAKER">
            <iidm:busBreakerTopology>
                <iidm:bus id="FRDDGN1 " v="380.1476469015495" angle="-7.656967262204625">
                    <iidm:property name="geographicalName" value="FRDDGN1"/>
                </iidm:bus>
            </iidm:busBreakerTopology>
            <iidm:generator id="FRDDGN1 _generator" energySource="OTHER" minP="-9000.0" maxP="9000.0" voltageRegulatorOn="true" targetP="0.0" targetV="380.0" targetQ="0.0" connectableBus="FRDDGN1 ">
                <iidm:minMaxReactiveLimits minQ="-9000.0" maxQ="9000.0"/>
            </iidm:generator>
            <iidm:load id="FRDDGN1 _load" loadType="UNDEFINED" p0="0.0" q0="-2.0" bus="FRDDGN1 " connectableBus="FRDDGN1 " p="0.0" q="-2.0"/>
        </iidm:voltageLevel>
    </iidm:substation>
    <iidm:substation id="PT_L1_" country="PT">
        <iidm:voltageLevel id="PT_L1_1" nominalV="380.0" topologyKind="BUS_BREAKER">
            <iidm:busBreakerTopology>
                <iidm:bus id="PT_L1_1 " v="380.0" angle="-2.35774181354786">
                    <iidm:property name="geographicalName" value="PT_L1_1"/>
                </iidm:bus>
            </iidm:busBreakerTopology>
            <iidm:generator id="PT_L1_1 _generator" energySource="OTHER" minP="-9000.0" maxP="9000.0" voltageRegulatorOn="true" targetP="0.0" targetV="380.0" targetQ="0.0" bus="PT_L1_1 " connectableBus="PT_L1_1 " p="-0.0" q="-354.7814403227303">
                <iidm:minMaxReactiveLimits minQ="-9000.0" maxQ="9000.0"/>
            </iidm:generator>
            <iidm:load id="PT_L1_1 _load" loadType="UNDEFINED" p0="1967.0" q0="-53.5" bus="PT_L1_1 " connectableBus="PT_L1_1 " p="1967.0" q="-53.5"/>
        </iidm:voltageLevel>
    </iidm:substation>
    <iidm:substation id="PT_L2_" country="PT">
        <iidm:voltageLevel id="PT_L2_1" nominalV="380.0" topologyKind="BUS_BREAKER">
            <iidm:busBreakerTopology>
                <iidm:bus id="PT_L2_1 " v="380.0" angle="-2.357979211492486">
                    <iidm:property name="geographicalName" value="PT_L2_1"/>
                </iidm:bus>
            </iidm:busBreakerTopology>
            <iidm:generator id="PT_L2_1 _generator" energySource="OTHER" minP="-9000.0" maxP="9000.0" voltageRegulatorOn="true" targetP="0.0" targetV="380.0" targetQ="0.0" bus="PT_L2_1 " connectableBus="PT_L2_1 " p="-0.0" q="-354.79069721497433">
                <iidm:minMaxReactiveLimits minQ="-9000.0" maxQ="9000.0"/>
            </iidm:generator>
            <iidm:load id="PT_L2_1 _load" loadType="UNDEFINED" p0="1967.0" q0="-53.5" bus="PT_L2_1 " connectableBus="PT_L2_1 " p="1967.0" q="-53.5"/>
        </iidm:voltageLevel>
    </iidm:substation>
    <iidm:substation id="PT_E1_" country="PT">
        <iidm:voltageLevel id="PT_E1_1" nominalV="380.0" topologyKind="BUS_BREAKER">
            <iidm:busBreakerTopology>
                <iidm:bus id="PT_E1_1 " v="380.0" angle="-2.359849932330654">
                    <iidm:property name="geographicalName" value="PT_E1_1"/>
                </iidm:bus>
            </iidm:busBreakerTopology>
            <iidm:generator id="PT_E1_1 _generator" energySource="OTHER" minP="-9000.0" maxP="9000.0" voltageRegulatorOn="true" targetP="0.0" targetV="380.0" targetQ="0.0" bus="PT_E1_1 " connectableBus="PT_E1_1 " p="-0.0" q="10.829948252936106">
                <iidm:minMaxReactiveLimits minQ="-9000.0" maxQ="9000.0"/>
            </iidm:generator>
        </iidm:voltageLevel>
    </iidm:substation>
...